STAAD SPACE
START JOB INFORMATION
ENGINEER DATE 03-May-21
END JOB INFORMATION
INPUT WIDTH 79
UNIT METER KN
JOINT COORDINATES
1 0 2 0; 2 15.2 2 0; 3 0 2 10.4; 4 15.2 2 10.4; 5 7.6 2 0; 6 7.6 2 10.4;
7 0 2 3.2; 8 7.6 2 3.2; 9 0 2 7.2; 10 7.6 2 7.2; 11 0 -21 12.7; 12 0 -21 -2.3;
13 0 -21 3.2; 15 0 -21 7.2; 17 2 -21 3.2; 18 2 -21 7.2; 19 6 -21 3.2;
20 6 -21 7.2; 21 17.5 -21 12.7; 22 17.5 -21 -2.3; 23 17.5 -21 5.2;
24 8.75 -21 12.7; 25 8.75 -21 -2.3; 26 8.75 -21 3.2; 27 8.75 -21 7.2;
28 0 -50 -5.2; 29 0 -50 15.6; 30 0 -50 3.2; 31 0 -50 7.2; 32 2 -50 3.2;
33 2 -50 7.2; 34 6 -50 3.2; 35 6 -50 7.2; 36 20.4 -50 15.6; 37 20.4 -50 -5.2;
38 20.4 -50 5.2; 39 10.2 -50 -5.2; 40 10.2 -50 15.6; 41 10.2 -50 3.2;
42 10.2 -50 7.2; 43 0 -79.5 -8.15; 44 0 -79.5 18.55; 45 0 -79.5 3.2;
46 0 -79.5 7.2; 47 2 -79.5 3.2; 48 2 -79.5 7.2; 49 6 -79.5 3.2; 50 6 -79.5 7.2;
51 23.4 -79.5 -8.15; 52 23.4 -79.5 18.55; 53 11.7 -79.5 -8.15;
54 11.7 -79.5 18.55; 55 11.7 -79.5 3.2; 56 11.7 -79.5 7.2; 57 23.4 -79.5 5.2;
58 0 -82 -8.4; 59 0 -82 18.8; 60 23.65 -82 18.8; 61 23.65 -82 -8.4; 62 2 2 3.2;
63 2 2 7.2; 64 6 2 3.2; 65 6 2 7.2; 66 0 2 9.86667; 67 0.542857 2 9.86667;
68 0.542857 2 10.4; 69 0 2 9.33333; 70 0.542857 2 9.33333; 71 0 2 8.8;
72 0.542857 2 8.8; 73 0 2 8.26667; 74 0.542857 2 8.26667; 75 0 2 7.73333;
76 0.542857 2 7.73333; 77 0.542857 2 7.2; 78 1.08571 2 9.86667;
79 1.08571 2 10.4; 80 1.08571 2 9.33333; 81 1.08571 2 8.8;
82 1.08571 2 8.26667; 83 1.08571 2 7.73333; 84 1.08571 2 7.2;
85 1.62857 2 9.86667; 86 1.62857 2 10.4; 87 1.62857 2 9.33333;
# ... 144 like lines cut
MEMBER INCIDENCES
1 3 66; 2 9 7; 3 7 167; 4 1 178; 5 6 162; 6 10 462; 7 8 263; 8 5 275; 9 4 457;
10 3 68; 11 6 367; 12 9 77; 13 7 169; 14 11 15; 15 15 13; 16 13 12; 17 12 25;
18 25 22; 19 15 18; 20 18 20; 26 24 27; 27 27 26; 28 26 25; 29 13 17; 30 17 19;
31 19 26; 34 20 27; 35 11 24; 36 24 21; 37 21 23; 38 23 22; 39 13 25; 40 25 23;
41 15 24; 42 24 23; 43 18 17; 44 20 19; 45 1 12; 46 3 11; 47 4 21; 48 2 22;
49 28 12; 50 29 11; 51 22 37; 52 21 36; 53 29 31; 54 31 30; 55 30 28; 56 28 39;
57 30 32; 58 32 34; 59 34 41; 60 31 33; 61 33 35; 62 35 42; 63 29 40; 64 40 42;
65 42 41; 66 41 39; 67 39 37; 68 40 36; 69 36 38; 70 38 37; 71 30 39; 72 31 40;
73 40 38; 74 39 38; 75 33 32; 76 35 34; 77 43 28; 78 44 29; 79 44 46; 80 46 45;
81 45 43; 82 43 53; 83 53 51; 84 44 54; 85 54 52; 86 52 57; 87 57 51; 88 46 48;
89 48 50; 90 50 56; 91 45 47; 92 48 47; 93 47 49; 94 50 49; 95 49 55; 96 56 55;
97 54 56; 98 55 53; 99 45 53; 100 53 57; 101 46 54; 102 54 57; 103 52 36;
104 51 37; 105 58 43; 106 59 44; 107 60 52; 108 61 51; 109 62 194; 110 63 98;
111 64 250; 112 65 154; 113 63 62; 114 65 64; 115 12 3; 116 11 1; 117 11 4;
118 21 3; 119 21 2; 120 22 4; 121 22 1; 122 12 2; 123 29 21; 124 36 11;
125 36 22; 126 37 21; 127 52 37; 128 51 36; 129 52 29; 130 44 36; 131 51 28;
132 43 37; 133 37 12; 134 28 22; 135 28 11; 136 29 12; 137 43 29; 138 44 28;
139 66 69; 140 68 79; 142 69 71; 144 71 73; 146 73 75; 148 75 9; 150 77 84;
152 79 86; 158 84 91; 160 86 93; 166 91 63; 168 93 100; 174 98 105;
176 100 107; 182 105 112; 184 107 114; 190 112 119; 192 114 121; 198 119 126;
# ... 18 like lines cut
ELEMENT INCIDENCES SHELL
141 3 66 67 68; 143 66 69 70 67; 145 69 71 72 70; 147 71 73 74 72;
149 73 75 76 74; 151 75 9 77 76; 153 68 67 78 79; 154 67 70 80 78;
155 70 72 81 80; 156 72 74 82 81; 157 74 76 83 82; 159 76 77 84 83;
161 79 78 85 86; 162 78 80 87 85; 163 80 81 88 87; 164 81 82 89 88;
165 82 83 90 89; 167 83 84 91 90; 169 86 85 92 93; 170 85 87 94 92;
171 87 88 95 94; 172 88 89 96 95; 173 89 90 97 96; 175 90 91 98 97;
177 93 92 99 100; 178 92 94 101 99; 179 94 95 102 101; 180 95 96 103 102;
181 96 97 104 103; 183 97 98 105 104; 185 100 99 106 107; 186 99 101 108 106;
187 101 102 109 108; 188 102 103 110 109; 189 103 104 111 110;
191 104 105 112 111; 193 107 106 113 114; 194 106 108 115 113;
195 108 109 116 115; 196 109 110 117 116; 197 110 111 118 117;
199 111 112 119 118; 201 114 113 120 121; 202 113 115 122 120;
203 115 116 123 122; 204 116 117 124 123; 205 117 118 125 124;
207 118 119 126 125; 209 121 120 127 128; 210 120 122 129 127;
211 122 123 130 129; 212 123 124 131 130; 213 124 125 132 131;
215 125 126 133 132; 217 128 127 134 135; 218 127 129 136 134;
219 129 130 137 136; 220 130 131 138 137; 221 131 132 139 138;
223 132 133 140 139; 225 135 134 141 142; 226 134 136 143 141;
227 136 137 144 143; 228 137 138 145 144; 229 138 139 146 145;
231 139 140 147 146; 233 142 141 148 149; 234 141 143 150 148;
# ... 126 like lines cut
ELEMENT PROPERTY
141 143 145 147 149 151 153 TO 157 159 161 TO 165 167 169 TO 173 175 -
177 TO 181 183 185 TO 189 191 193 TO 197 199 201 TO 205 207 209 TO 213 215 -
217 TO 221 223 225 TO 229 231 233 TO 237 239 241 TO 245 247 249 251 253 255 -
257 258 261 263 265 267 269 271 273 TO 277 279 281 TO 285 287 289 TO 293 -
295 297 TO 301 303 305 TO 309 311 313 TO 317 319 321 TO 325 327 329 TO 333 -
335 337 TO 341 343 345 TO 349 351 353 TO 357 359 361 TO 365 367 369 371 373 -
375 377 378 398 TO 481 501 TO 584 586 588 590 592 594 596 598 TO 695 697 -
699 701 703 705 707 709 710 THICKNESS 0.05
DEFINE MATERIAL START
ISOTROPIC STEEL
E 2.05e+008
POISSON 0.3
DENSITY 78.5
ALPHA 1.2e-005
DAMP 0.03
TYPE STEEL
STRENGTH FY 500 FU 545 RY 1.5 RT 1.2
END DEFINE MATERIAL
MEMBER PROPERTY INDIAN
45 TO 52 77 78 103 TO 108 TABLE ST PIPE OD 1.12 ID 1.07
82 TO 85 127 TO 132 137 138 TABLE ST PIPE OD 0.71 ID 0.667
79 TO 81 86 87 TABLE ST PIPE OD 0.61 ID 0.57
53 TO 56 63 67 TO 70 96 TO 98 123 TO 126 133 TO 135 -
136 TABLE ST PIPE OD 0.51 ID 0.47
1 TO 11 14 TO 18 26 TO 28 35 TO 42 64 TO 66 71 TO 74 88 TO 91 93 95 -
99 TO 102 115 TO 122 139 140 142 144 146 148 152 160 168 176 184 192 200 -
208 216 224 232 240 248 250 252 254 256 259 262 264 266 268 270 278 286 294 -
302 310 318 326 334 342 350 358 366 368 370 372 374 376 379 TO 397 -
482 TO 500 585 587 589 591 593 595 597 696 698 700 702 704 706 -
708 TABLE ST PIPE OD 0.457 ID 0.417
12 13 19 20 29 TO 31 34 57 TO 62 109 TO 112 150 158 166 174 182 190 198 206 -
214 222 230 238 246 260 272 280 288 296 304 312 320 328 336 344 352 -
360 TABLE ST PIPE OD 0.405 ID 0.365
43 44 75 76 92 94 113 114 TABLE ST PIPE OD 0.325 ID 0.29
CONSTANTS
MATERIAL STEEL ALL
SUPPORTS
58 TO 61 FIXED
LOAD 1 LOADTYPE Dead  TITLE DEADLOAD
SELFWEIGHT Y -1 
LOAD 2 LOADTYPE Live  TITLE LIVELOAD
ELEMENT LOAD
141 143 145 147 149 151 153 TO 157 159 161 TO 165 167 169 TO 173 175 -
177 TO 181 183 185 TO 189 191 193 TO 197 199 201 TO 205 207 209 TO 213 215 -
217 TO 221 223 225 TO 229 231 233 TO 237 239 241 TO 245 247 249 251 253 255 -
257 258 261 263 265 267 269 271 273 TO 277 279 281 TO 285 287 289 TO 293 -
295 297 TO 301 303 305 TO 309 311 313 TO 317 319 321 TO 325 327 329 TO 333 -
335 337 TO 341 343 345 TO 349 351 353 TO 357 359 361 TO 365 367 369 371 373 -
375 377 378 398 TO 481 501 TO 584 586 588 590 592 594 596 598 TO 695 697 -
699 701 703 705 707 709 710 PR GY -10
LOAD 3 LOADTYPE Live  TITLE BERTHINGFORCE
JOINT LOAD
6 FZ -250
LOAD COMB 4 SERVICEABILITY
1 1.0 2 1.0 3 1.0 
LOAD COMB 5 COLLAPSE
1 1.5 2 1.5 3 1.5 
PERFORM ANALYSIS PRINT ALL
FINISH
